Version 4.1
SHEET 1 1512 680
WIRE 304 -656 160 -656
WIRE 480 -656 304 -656
WIRE 800 -544 352 -544
WIRE 928 -544 880 -544
WIRE -32 -448 -32 -496
WIRE 352 -400 352 -544
WIRE 384 -400 352 -400
WIRE 928 -400 928 -544
WIRE 928 -400 864 -400
WIRE -32 -384 -32 -448
WIRE -432 -320 -448 -320
WIRE -352 -320 -432 -320
WIRE -224 -320 -288 -320
WIRE -144 -320 -224 -320
WIRE -80 -320 -144 -320
WIRE 384 -320 320 -320
WIRE 928 -320 864 -320
WIRE 1088 -288 1088 -336
WIRE -224 -240 -224 -320
WIRE -32 -224 -32 -288
WIRE 32 -224 -32 -224
WIRE 160 -224 96 -224
WIRE 384 -224 352 -224
WIRE 1088 -224 1088 -288
WIRE 1088 -224 864 -224
WIRE 928 -192 928 -320
WIRE 1088 -192 1088 -224
WIRE 928 -176 928 -192
WIRE -448 -160 -448 -320
WIRE 160 -144 160 -224
WIRE -32 -128 -32 -224
WIRE 352 -128 352 -224
WIRE 384 -128 352 -128
WIRE 880 -128 864 -128
WIRE -224 -96 -224 -160
WIRE 160 -80 160 -144
WIRE 928 -80 928 -128
WIRE 1088 -80 1088 -128
WIRE -448 -16 -448 -80
WIRE -32 0 -32 -48
WIRE 160 32 160 0
WIRE 320 32 320 -320
WIRE 320 32 160 32
WIRE 352 64 352 -128
WIRE 160 80 160 32
WIRE 880 96 880 -128
WIRE 1104 96 880 96
WIRE 1232 96 1104 96
WIRE 1392 96 1296 96
WIRE 1456 96 1392 96
WIRE 1104 144 1104 96
WIRE 160 192 160 160
WIRE 1456 224 1456 176
WIRE 1104 272 1104 224
WIRE 1104 384 1104 336
FLAG -448 -16 0
FLAG -224 -96 0
FLAG 304 -656 Vpower
FLAG 160 192 0
FLAG -32 0 0
FLAG 352 64 0
FLAG 1088 -80 0
FLAG -32 -448 Vpower
FLAG 1088 -288 Vpower
FLAG 480 -576 0
FLAG 928 -80 0
FLAG 1104 384 0
FLAG 1456 224 0
FLAG 1392 96 Vout_max
FLAG -432 -320 Vin
FLAG -144 -320 Vin_jfet
FLAG 160 -144 Vout_jfet
SYMBOL LM386 464 -352 R0
SYMATTR SpiceModel ""
SYMATTR InstName U1
SYMBOL voltage -448 -176 R0
WINDOW 123 50 59 Left 2
WINDOW 39 0 0 Left 0
SYMATTR Value2 AC 1
SYMATTR InstName V1
SYMATTR Value SINE(0 10m 500)
SYMBOL res -240 -256 R0
SYMATTR InstName R1
SYMATTR Value 1.5Meg
SYMBOL voltage 480 -672 R0
WINDOW 123 0 0 Left 0
WINDOW 39 0 0 Left 0
SYMATTR InstName V2
SYMATTR Value 9
SYMBOL cap 96 -240 R90
WINDOW 0 0 32 VBottom 2
WINDOW 3 32 32 VTop 2
SYMATTR InstName C1
SYMATTR Value 58n
SYMBOL res 144 -96 R0
SYMATTR InstName R2
SYMATTR Value {22k*(1-a)}
SYMBOL res 144 64 R0
SYMATTR InstName R3
SYMATTR Value {22k*a}
SYMBOL res -48 -144 R0
SYMATTR InstName R4
SYMATTR Value 5k
SYMBOL cap 1072 -192 R0
SYMATTR InstName C2
SYMATTR Value 100”
SYMBOL cap 912 -192 R0
SYMATTR InstName C3
SYMATTR Value 100n
SYMBOL res 1088 128 R0
SYMATTR InstName R7
SYMATTR Value 10
SYMBOL cap 1088 272 R0
SYMATTR InstName C4
SYMATTR Value 58n
SYMBOL cap 1296 80 R90
WINDOW 0 0 32 VBottom 2
WINDOW 3 32 32 VTop 2
SYMATTR InstName C5
SYMATTR Value 220”
SYMBOL res 1440 80 R0
SYMATTR InstName R8
SYMATTR Value 8
SYMBOL res 896 -560 R90
WINDOW 0 0 56 VBottom 2
WINDOW 3 32 56 VTop 2
SYMATTR InstName R5
SYMATTR Value {10k*b}
SYMBOL cap -288 -336 R90
WINDOW 0 0 32 VBottom 2
WINDOW 3 32 32 VTop 2
SYMATTR InstName C6
SYMATTR Value 100n
SYMBOL njf -80 -384 R0
SYMATTR InstName J1
SYMATTR Value BF245C
TEXT -360 -680 Left 2 !.include LM386.sub
TEXT -360 -648 Left 2 !.param a=0.99999
TEXT -360 -552 Left 2 ;.tran 0 100m 90m 10u
TEXT -360 -720 Left 2 !.ac dec 100 1 70k
TEXT -360 -600 Left 2 !.param b=0.0001
TEXT -728 -936 Left 2 !.MODEL BF245C NJF(\n+ VTO=-5.0014\n+ BETA=5.43157E-4\n+ BETATCE=-0.5\n+ LAMBDA=2.71505E-2\n+ RD=1.20869E1\n+ RS=1.20869E1\n+ CGS=2.00000p\n+ CGD=2.00000p\n+ PB=1.24659\n+ IS=3.64346E-16\n+ XTI=3\n+ AF=1\n+ FC=0.5\n+ N=1\n+ NR=2\n+ MFG=PHILIPS\n+)
TEXT -360 -520 Left 2 ;.op
